40
0.0000000  23.5600012  0.0000000  23.5600012  0.0000000  2.4595121  
C  11.7800006  5.0000000  0.6148780  
C  15.7651849  6.2948649  0.6148780  
C  18.2281643  9.6848652  0.6148780  
C  18.2281643  13.8751360  0.6148780  
C  15.7651849  17.2651363  0.6148780  
C  11.7800006  18.5600012  0.6148780  
C  7.7948163  17.2651363  0.6148780  
C  5.3318369  13.8751360  0.6148780  
C  5.3318369  9.6848652  0.6148780  
C  7.7948163  6.2948649  0.6148780  
C  14.5376753  5.5861619  0.6148780  
C  17.6516533  8.3900003  0.6148780  
C  18.5228596  12.4887036  0.6148780  
C  16.8185229  16.3167065  0.6148780  
C  13.1896420  18.4118419  0.6148780  
C  9.0223259  17.9738393  0.6148780  
C  5.9083479  15.1700009  0.6148780  
C  5.0371416  11.0712976  0.6148780  
C  6.7414783  7.2432947  0.6148780  
C  10.3703592  5.1481593  0.6148780  
C  13.8751360  5.3318369  1.8446341  
C  17.2651363  7.7948163  1.8446341  
C  18.5600012  11.7800006  1.8446341  
C  17.2651363  15.7651849  1.8446341  
C  13.8751360  18.2281643  1.8446341  
C  9.6848652  18.2281643  1.8446341  
C  6.2948649  15.7651849  1.8446341  
C  5.0000000  11.7800006  1.8446341  
C  6.2948649  7.7948163  1.8446341  
C  9.6848652  5.3318369  1.8446341  
C  12.4887036  5.0371416  1.8446341  
C  16.3167065  6.7414783  1.8446341  
C  18.4118419  10.3703592  1.8446341  
C  17.9738393  14.5376753  1.8446341  
C  15.1700009  17.6516533  1.8446341  
C  11.0712976  18.5228596  1.8446341  
C  7.2432947  16.8185229  1.8446341  
C  5.1481593  13.1896420  1.8446341  
C  5.5861619  9.0223259  1.8446341  
C  8.3900003  5.9083479  1.8446341  
