640
     0.00000000     50.00000000      0.00000000     50.00000000      0.00000000     39.35219360 
C  2.50000000e+01  1.82199994e+01  6.14878000e-01 1 
C  2.89851843e+01  1.95148643e+01  6.14878000e-01 1 
C  3.14481637e+01  2.29048646e+01  6.14878000e-01 1 
C  3.14481637e+01  2.70951354e+01  6.14878000e-01 1 
C  2.89851843e+01  3.04851357e+01  6.14878000e-01 1 
C  2.50000000e+01  3.17800006e+01  6.14878000e-01 1 
C  2.10148157e+01  3.04851357e+01  6.14878000e-01 1 
C  1.85518363e+01  2.70951354e+01  6.14878000e-01 1 
C  1.85518363e+01  2.29048646e+01  6.14878000e-01 1 
C  2.10148157e+01  1.95148643e+01  6.14878000e-01 1 
C  2.77576747e+01  1.88061613e+01  6.14878000e-01 1 
C  3.08716527e+01  2.16099997e+01  6.14878000e-01 1 
C  3.17428590e+01  2.57087030e+01  6.14878000e-01 1 
C  3.00385223e+01  2.95367059e+01  6.14878000e-01 1 
C  2.64096414e+01  3.16318413e+01  6.14878000e-01 1 
C  2.22423253e+01  3.11938387e+01  6.14878000e-01 1 
C  1.91283473e+01  2.83900003e+01  6.14878000e-01 1 
C  1.82571410e+01  2.42912970e+01  6.14878000e-01 1 
C  1.99614777e+01  2.04632941e+01  6.14878000e-01 1 
C  2.35903586e+01  1.83681587e+01  6.14878000e-01 1 
C  2.70951354e+01  1.85518363e+01  1.84463410e+00 1 
C  3.04851357e+01  2.10148157e+01  1.84463410e+00 1 
C  3.17800006e+01  2.50000000e+01  1.84463410e+00 1 
C  3.04851357e+01  2.89851843e+01  1.84463410e+00 1 
C  2.70951354e+01  3.14481637e+01  1.84463410e+00 1 
C  2.29048646e+01  3.14481637e+01  1.84463410e+00 1 
C  1.95148643e+01  2.89851843e+01  1.84463410e+00 1 
C  1.82199994e+01  2.50000000e+01  1.84463410e+00 1 
C  1.95148643e+01  2.10148157e+01  1.84463410e+00 1 
C  2.29048646e+01  1.85518363e+01  1.84463410e+00 1 
C  2.57087030e+01  1.82571410e+01  1.84463410e+00 1 
C  2.95367059e+01  1.99614777e+01  1.84463410e+00 1 
C  3.16318413e+01  2.35903586e+01  1.84463410e+00 1 
C  3.11938387e+01  2.77576747e+01  1.84463410e+00 1 
C  2.83900003e+01  3.08716527e+01  1.84463410e+00 1 
C  2.42912970e+01  3.17428590e+01  1.84463410e+00 1 
C  2.04632941e+01  3.00385223e+01  1.84463410e+00 1 
C  1.83681587e+01  2.64096414e+01  1.84463410e+00 1 
C  1.88061613e+01  2.22423253e+01  1.84463410e+00 1 
C  2.16099997e+01  1.91283473e+01  1.84463410e+00 1 
C  2.50000000e+01  1.82199994e+01  3.07439010e+00 1 
C  2.89851843e+01  1.95148643e+01  3.07439010e+00 1 
C  3.14481637e+01  2.29048646e+01  3.07439010e+00 1 
C  3.14481637e+01  2.70951354e+01  3.07439010e+00 1 
C  2.89851843e+01  3.04851357e+01  3.07439010e+00 1 
C  2.50000000e+01  3.17800006e+01  3.07439010e+00 1 
C  2.10148157e+01  3.04851357e+01  3.07439010e+00 1 
C  1.85518363e+01  2.70951354e+01  3.07439010e+00 1 
C  1.85518363e+01  2.29048646e+01  3.07439010e+00 1 
C  2.10148157e+01  1.95148643e+01  3.07439010e+00 1 
C  2.77576747e+01  1.88061613e+01  3.07439010e+00 1 
C  3.08716527e+01  2.16099997e+01  3.07439010e+00 1 
C  3.17428590e+01  2.57087030e+01  3.07439010e+00 1 
C  3.00385223e+01  2.95367059e+01  3.07439010e+00 1 
C  2.64096414e+01  3.16318413e+01  3.07439010e+00 1 
C  2.22423253e+01  3.11938387e+01  3.07439010e+00 1 
C  1.91283473e+01  2.83900003e+01  3.07439010e+00 1 
C  1.82571410e+01  2.42912970e+01  3.07439010e+00 1 
C  1.99614777e+01  2.04632941e+01  3.07439010e+00 1 
C  2.35903586e+01  1.83681587e+01  3.07439010e+00 1 
C  2.70951354e+01  1.85518363e+01  4.30414620e+00 1 
C  3.04851357e+01  2.10148157e+01  4.30414620e+00 1 
C  3.17800006e+01  2.50000000e+01  4.30414620e+00 1 
C  3.04851357e+01  2.89851843e+01  4.30414620e+00 1 
C  2.70951354e+01  3.14481637e+01  4.30414620e+00 1 
C  2.29048646e+01  3.14481637e+01  4.30414620e+00 1 
C  1.95148643e+01  2.89851843e+01  4.30414620e+00 1 
C  1.82199994e+01  2.50000000e+01  4.30414620e+00 1 
C  1.95148643e+01  2.10148157e+01  4.30414620e+00 1 
C  2.29048646e+01  1.85518363e+01  4.30414620e+00 1 
C  2.57087030e+01  1.82571410e+01  4.30414620e+00 1 
C  2.95367059e+01  1.99614777e+01  4.30414620e+00 1 
C  3.16318413e+01  2.35903586e+01  4.30414620e+00 1 
C  3.11938387e+01  2.77576747e+01  4.30414620e+00 1 
C  2.83900003e+01  3.08716527e+01  4.30414620e+00 1 
C  2.42912970e+01  3.17428590e+01  4.30414620e+00 1 
C  2.04632941e+01  3.00385223e+01  4.30414620e+00 1 
C  1.83681587e+01  2.64096414e+01  4.30414620e+00 1 
C  1.88061613e+01  2.22423253e+01  4.30414620e+00 1 
C  2.16099997e+01  1.91283473e+01  4.30414620e+00 1 
C  2.50000000e+01  1.82199994e+01  5.53390220e+00 1 
C  2.89851843e+01  1.95148643e+01  5.53390220e+00 1 
C  3.14481637e+01  2.29048646e+01  5.53390220e+00 1 
C  3.14481637e+01  2.70951354e+01  5.53390220e+00 1 
C  2.89851843e+01  3.04851357e+01  5.53390220e+00 1 
C  2.50000000e+01  3.17800006e+01  5.53390220e+00 1 
C  2.10148157e+01  3.04851357e+01  5.53390220e+00 1 
C  1.85518363e+01  2.70951354e+01  5.53390220e+00 1 
C  1.85518363e+01  2.29048646e+01  5.53390220e+00 1 
C  2.10148157e+01  1.95148643e+01  5.53390220e+00 1 
C  2.77576747e+01  1.88061613e+01  5.53390220e+00 1 
C  3.08716527e+01  2.16099997e+01  5.53390220e+00 1 
C  3.17428590e+01  2.57087030e+01  5.53390220e+00 1 
C  3.00385223e+01  2.95367059e+01  5.53390220e+00 1 
C  2.64096414e+01  3.16318413e+01  5.53390220e+00 1 
C  2.22423253e+01  3.11938387e+01  5.53390220e+00 1 
C  1.91283473e+01  2.83900003e+01  5.53390220e+00 1 
C  1.82571410e+01  2.42912970e+01  5.53390220e+00 1 
C  1.99614777e+01  2.04632941e+01  5.53390220e+00 1 
C  2.35903586e+01  1.83681587e+01  5.53390220e+00 1 
C  2.70951354e+01  1.85518363e+01  6.76365830e+00 1 
C  3.04851357e+01  2.10148157e+01  6.76365830e+00 1 
C  3.17800006e+01  2.50000000e+01  6.76365830e+00 1 
C  3.04851357e+01  2.89851843e+01  6.76365830e+00 1 
C  2.70951354e+01  3.14481637e+01  6.76365830e+00 1 
C  2.29048646e+01  3.14481637e+01  6.76365830e+00 1 
C  1.95148643e+01  2.89851843e+01  6.76365830e+00 1 
C  1.82199994e+01  2.50000000e+01  6.76365830e+00 1 
C  1.95148643e+01  2.10148157e+01  6.76365830e+00 1 
C  2.29048646e+01  1.85518363e+01  6.76365830e+00 1 
C  2.57087030e+01  1.82571410e+01  6.76365830e+00 1 
C  2.95367059e+01  1.99614777e+01  6.76365830e+00 1 
C  3.16318413e+01  2.35903586e+01  6.76365830e+00 1 
C  3.11938387e+01  2.77576747e+01  6.76365830e+00 1 
C  2.83900003e+01  3.08716527e+01  6.76365830e+00 1 
C  2.42912970e+01  3.17428590e+01  6.76365830e+00 1 
C  2.04632941e+01  3.00385223e+01  6.76365830e+00 1 
C  1.83681587e+01  2.64096414e+01  6.76365830e+00 1 
C  1.88061613e+01  2.22423253e+01  6.76365830e+00 1 
C  2.16099997e+01  1.91283473e+01  6.76365830e+00 1 
C  2.50000000e+01  1.82199994e+01  7.99341430e+00 1 
C  2.89851843e+01  1.95148643e+01  7.99341430e+00 1 
C  3.14481637e+01  2.29048646e+01  7.99341430e+00 1 
C  3.14481637e+01  2.70951354e+01  7.99341430e+00 1 
C  2.89851843e+01  3.04851357e+01  7.99341430e+00 1 
C  2.50000000e+01  3.17800006e+01  7.99341430e+00 1 
C  2.10148157e+01  3.04851357e+01  7.99341430e+00 1 
C  1.85518363e+01  2.70951354e+01  7.99341430e+00 1 
C  1.85518363e+01  2.29048646e+01  7.99341430e+00 1 
C  2.10148157e+01  1.95148643e+01  7.99341430e+00 1 
C  2.77576747e+01  1.88061613e+01  7.99341430e+00 1 
C  3.08716527e+01  2.16099997e+01  7.99341430e+00 1 
C  3.17428590e+01  2.57087030e+01  7.99341430e+00 1 
C  3.00385223e+01  2.95367059e+01  7.99341430e+00 1 
C  2.64096414e+01  3.16318413e+01  7.99341430e+00 1 
C  2.22423253e+01  3.11938387e+01  7.99341430e+00 1 
C  1.91283473e+01  2.83900003e+01  7.99341430e+00 1 
C  1.82571410e+01  2.42912970e+01  7.99341430e+00 1 
C  1.99614777e+01  2.04632941e+01  7.99341430e+00 1 
C  2.35903586e+01  1.83681587e+01  7.99341430e+00 1 
C  2.70951354e+01  1.85518363e+01  9.22317040e+00 1 
C  3.04851357e+01  2.10148157e+01  9.22317040e+00 1 
C  3.17800006e+01  2.50000000e+01  9.22317040e+00 1 
C  3.04851357e+01  2.89851843e+01  9.22317040e+00 1 
C  2.70951354e+01  3.14481637e+01  9.22317040e+00 1 
C  2.29048646e+01  3.14481637e+01  9.22317040e+00 1 
C  1.95148643e+01  2.89851843e+01  9.22317040e+00 1 
C  1.82199994e+01  2.50000000e+01  9.22317040e+00 1 
C  1.95148643e+01  2.10148157e+01  9.22317040e+00 1 
C  2.29048646e+01  1.85518363e+01  9.22317040e+00 1 
C  2.57087030e+01  1.82571410e+01  9.22317040e+00 1 
C  2.95367059e+01  1.99614777e+01  9.22317040e+00 1 
C  3.16318413e+01  2.35903586e+01  9.22317040e+00 1 
C  3.11938387e+01  2.77576747e+01  9.22317040e+00 1 
C  2.83900003e+01  3.08716527e+01  9.22317040e+00 1 
C  2.42912970e+01  3.17428590e+01  9.22317040e+00 1 
C  2.04632941e+01  3.00385223e+01  9.22317040e+00 1 
C  1.83681587e+01  2.64096414e+01  9.22317040e+00 1 
C  1.88061613e+01  2.22423253e+01  9.22317040e+00 1 
C  2.16099997e+01  1.91283473e+01  9.22317040e+00 1 
C  2.50000000e+01  1.82199994e+01  1.04529264e+01 1 
C  2.89851843e+01  1.95148643e+01  1.04529264e+01 1 
C  3.14481637e+01  2.29048646e+01  1.04529264e+01 1 
C  3.14481637e+01  2.70951354e+01  1.04529264e+01 1 
C  2.89851843e+01  3.04851357e+01  1.04529264e+01 1 
C  2.50000000e+01  3.17800006e+01  1.04529264e+01 1 
C  2.10148157e+01  3.04851357e+01  1.04529264e+01 1 
C  1.85518363e+01  2.70951354e+01  1.04529264e+01 1 
C  1.85518363e+01  2.29048646e+01  1.04529264e+01 1 
C  2.10148157e+01  1.95148643e+01  1.04529264e+01 1 
C  2.77576747e+01  1.88061613e+01  1.04529264e+01 1 
C  3.08716527e+01  2.16099997e+01  1.04529264e+01 1 
C  3.17428590e+01  2.57087030e+01  1.04529264e+01 1 
C  3.00385223e+01  2.95367059e+01  1.04529264e+01 1 
C  2.64096414e+01  3.16318413e+01  1.04529264e+01 1 
C  2.22423253e+01  3.11938387e+01  1.04529264e+01 1 
C  1.91283473e+01  2.83900003e+01  1.04529264e+01 1 
C  1.82571410e+01  2.42912970e+01  1.04529264e+01 1 
C  1.99614777e+01  2.04632941e+01  1.04529264e+01 1 
C  2.35903586e+01  1.83681587e+01  1.04529264e+01 1 
C  2.70951354e+01  1.85518363e+01  1.16826825e+01 1 
C  3.04851357e+01  2.10148157e+01  1.16826825e+01 1 
C  3.17800006e+01  2.50000000e+01  1.16826825e+01 1 
C  3.04851357e+01  2.89851843e+01  1.16826825e+01 1 
C  2.70951354e+01  3.14481637e+01  1.16826825e+01 1 
C  2.29048646e+01  3.14481637e+01  1.16826825e+01 1 
C  1.95148643e+01  2.89851843e+01  1.16826825e+01 1 
C  1.82199994e+01  2.50000000e+01  1.16826825e+01 1 
C  1.95148643e+01  2.10148157e+01  1.16826825e+01 1 
C  2.29048646e+01  1.85518363e+01  1.16826825e+01 1 
C  2.57087030e+01  1.82571410e+01  1.16826825e+01 1 
C  2.95367059e+01  1.99614777e+01  1.16826825e+01 1 
C  3.16318413e+01  2.35903586e+01  1.16826825e+01 1 
C  3.11938387e+01  2.77576747e+01  1.16826825e+01 1 
C  2.83900003e+01  3.08716527e+01  1.16826825e+01 1 
C  2.42912970e+01  3.17428590e+01  1.16826825e+01 1 
C  2.04632941e+01  3.00385223e+01  1.16826825e+01 1 
C  1.83681587e+01  2.64096414e+01  1.16826825e+01 1 
C  1.88061613e+01  2.22423253e+01  1.16826825e+01 1 
C  2.16099997e+01  1.91283473e+01  1.16826825e+01 1 
C  2.50000000e+01  1.82199994e+01  1.29124385e+01 1 
C  2.89851843e+01  1.95148643e+01  1.29124385e+01 1 
C  3.14481637e+01  2.29048646e+01  1.29124385e+01 1 
C  3.14481637e+01  2.70951354e+01  1.29124385e+01 1 
C  2.89851843e+01  3.04851357e+01  1.29124385e+01 1 
C  2.50000000e+01  3.17800006e+01  1.29124385e+01 1 
C  2.10148157e+01  3.04851357e+01  1.29124385e+01 1 
C  1.85518363e+01  2.70951354e+01  1.29124385e+01 1 
C  1.85518363e+01  2.29048646e+01  1.29124385e+01 1 
C  2.10148157e+01  1.95148643e+01  1.29124385e+01 1 
C  2.77576747e+01  1.88061613e+01  1.29124385e+01 1 
C  3.08716527e+01  2.16099997e+01  1.29124385e+01 1 
C  3.17428590e+01  2.57087030e+01  1.29124385e+01 1 
C  3.00385223e+01  2.95367059e+01  1.29124385e+01 1 
C  2.64096414e+01  3.16318413e+01  1.29124385e+01 1 
C  2.22423253e+01  3.11938387e+01  1.29124385e+01 1 
C  1.91283473e+01  2.83900003e+01  1.29124385e+01 1 
C  1.82571410e+01  2.42912970e+01  1.29124385e+01 1 
C  1.99614777e+01  2.04632941e+01  1.29124385e+01 1 
C  2.35903586e+01  1.83681587e+01  1.29124385e+01 1 
C  2.70951354e+01  1.85518363e+01  1.41421946e+01 1 
C  3.04851357e+01  2.10148157e+01  1.41421946e+01 1 
C  3.17800006e+01  2.50000000e+01  1.41421946e+01 1 
C  3.04851357e+01  2.89851843e+01  1.41421946e+01 1 
C  2.70951354e+01  3.14481637e+01  1.41421946e+01 1 
C  2.29048646e+01  3.14481637e+01  1.41421946e+01 1 
C  1.95148643e+01  2.89851843e+01  1.41421946e+01 1 
C  1.82199994e+01  2.50000000e+01  1.41421946e+01 1 
C  1.95148643e+01  2.10148157e+01  1.41421946e+01 1 
C  2.29048646e+01  1.85518363e+01  1.41421946e+01 1 
C  2.57087030e+01  1.82571410e+01  1.41421946e+01 1 
C  2.95367059e+01  1.99614777e+01  1.41421946e+01 1 
C  3.16318413e+01  2.35903586e+01  1.41421946e+01 1 
C  3.11938387e+01  2.77576747e+01  1.41421946e+01 1 
C  2.83900003e+01  3.08716527e+01  1.41421946e+01 1 
C  2.42912970e+01  3.17428590e+01  1.41421946e+01 1 
C  2.04632941e+01  3.00385223e+01  1.41421946e+01 1 
C  1.83681587e+01  2.64096414e+01  1.41421946e+01 1 
C  1.88061613e+01  2.22423253e+01  1.41421946e+01 1 
C  2.16099997e+01  1.91283473e+01  1.41421946e+01 1 
C  2.50000000e+01  1.82199994e+01  1.53719506e+01 1 
C  2.89851843e+01  1.95148643e+01  1.53719506e+01 1 
C  3.14481637e+01  2.29048646e+01  1.53719506e+01 1 
C  3.14481637e+01  2.70951354e+01  1.53719506e+01 1 
C  2.89851843e+01  3.04851357e+01  1.53719506e+01 1 
C  2.50000000e+01  3.17800006e+01  1.53719506e+01 1 
C  2.10148157e+01  3.04851357e+01  1.53719506e+01 1 
C  1.85518363e+01  2.70951354e+01  1.53719506e+01 1 
C  1.85518363e+01  2.29048646e+01  1.53719506e+01 1 
C  2.10148157e+01  1.95148643e+01  1.53719506e+01 1 
C  2.77576747e+01  1.88061613e+01  1.53719506e+01 1 
C  3.08716527e+01  2.16099997e+01  1.53719506e+01 1 
C  3.17428590e+01  2.57087030e+01  1.53719506e+01 1 
C  3.00385223e+01  2.95367059e+01  1.53719506e+01 1 
C  2.64096414e+01  3.16318413e+01  1.53719506e+01 1 
C  2.22423253e+01  3.11938387e+01  1.53719506e+01 1 
C  1.91283473e+01  2.83900003e+01  1.53719506e+01 1 
C  1.82571410e+01  2.42912970e+01  1.53719506e+01 1 
C  1.99614777e+01  2.04632941e+01  1.53719506e+01 1 
C  2.35903586e+01  1.83681587e+01  1.53719506e+01 1 
C  2.70951354e+01  1.85518363e+01  1.66017067e+01 1 
C  3.04851357e+01  2.10148157e+01  1.66017067e+01 1 
C  3.17800006e+01  2.50000000e+01  1.66017067e+01 1 
C  3.04851357e+01  2.89851843e+01  1.66017067e+01 1 
C  2.70951354e+01  3.14481637e+01  1.66017067e+01 1 
C  2.29048646e+01  3.14481637e+01  1.66017067e+01 1 
C  1.95148643e+01  2.89851843e+01  1.66017067e+01 1 
C  1.82199994e+01  2.50000000e+01  1.66017067e+01 1 
C  1.95148643e+01  2.10148157e+01  1.66017067e+01 1 
C  2.29048646e+01  1.85518363e+01  1.66017067e+01 1 
C  2.57087030e+01  1.82571410e+01  1.66017067e+01 1 
C  2.95367059e+01  1.99614777e+01  1.66017067e+01 1 
C  3.16318413e+01  2.35903586e+01  1.66017067e+01 1 
C  3.11938387e+01  2.77576747e+01  1.66017067e+01 1 
C  2.83900003e+01  3.08716527e+01  1.66017067e+01 1 
C  2.42912970e+01  3.17428590e+01  1.66017067e+01 1 
C  2.04632941e+01  3.00385223e+01  1.66017067e+01 1 
C  1.83681587e+01  2.64096414e+01  1.66017067e+01 1 
C  1.88061613e+01  2.22423253e+01  1.66017067e+01 1 
C  2.16099997e+01  1.91283473e+01  1.66017067e+01 1 
C  2.50000000e+01  1.82199994e+01  1.78314627e+01 1 
C  2.89851843e+01  1.95148643e+01  1.78314627e+01 1 
C  3.14481637e+01  2.29048646e+01  1.78314627e+01 1 
C  3.14481637e+01  2.70951354e+01  1.78314627e+01 1 
C  2.89851843e+01  3.04851357e+01  1.78314627e+01 1 
C  2.50000000e+01  3.17800006e+01  1.78314627e+01 1 
C  2.10148157e+01  3.04851357e+01  1.78314627e+01 1 
C  1.85518363e+01  2.70951354e+01  1.78314627e+01 1 
C  1.85518363e+01  2.29048646e+01  1.78314627e+01 1 
C  2.10148157e+01  1.95148643e+01  1.78314627e+01 1 
C  2.77576747e+01  1.88061613e+01  1.78314627e+01 1 
C  3.08716527e+01  2.16099997e+01  1.78314627e+01 1 
C  3.17428590e+01  2.57087030e+01  1.78314627e+01 1 
C  3.00385223e+01  2.95367059e+01  1.78314627e+01 1 
C  2.64096414e+01  3.16318413e+01  1.78314627e+01 1 
C  2.22423253e+01  3.11938387e+01  1.78314627e+01 1 
C  1.91283473e+01  2.83900003e+01  1.78314627e+01 1 
C  1.82571410e+01  2.42912970e+01  1.78314627e+01 1 
C  1.99614777e+01  2.04632941e+01  1.78314627e+01 1 
C  2.35903586e+01  1.83681587e+01  1.78314627e+01 1 
C  2.70951354e+01  1.85518363e+01  1.90612188e+01 1 
C  3.04851357e+01  2.10148157e+01  1.90612188e+01 1 
C  3.17800006e+01  2.50000000e+01  1.90612188e+01 1 
C  3.04851357e+01  2.89851843e+01  1.90612188e+01 1 
C  2.70951354e+01  3.14481637e+01  1.90612188e+01 1 
C  2.29048646e+01  3.14481637e+01  1.90612188e+01 1 
C  1.95148643e+01  2.89851843e+01  1.90612188e+01 1 
C  1.82199994e+01  2.50000000e+01  1.90612188e+01 1 
C  1.95148643e+01  2.10148157e+01  1.90612188e+01 1 
C  2.29048646e+01  1.85518363e+01  1.90612188e+01 1 
C  2.57087030e+01  1.82571410e+01  1.90612188e+01 1 
C  2.95367059e+01  1.99614777e+01  1.90612188e+01 1 
C  3.16318413e+01  2.35903586e+01  1.90612188e+01 1 
C  3.11938387e+01  2.77576747e+01  1.90612188e+01 1 
C  2.83900003e+01  3.08716527e+01  1.90612188e+01 1 
C  2.42912970e+01  3.17428590e+01  1.90612188e+01 1 
C  2.04632941e+01  3.00385223e+01  1.90612188e+01 1 
C  1.83681587e+01  2.64096414e+01  1.90612188e+01 1 
C  1.88061613e+01  2.22423253e+01  1.90612188e+01 1 
C  2.16099997e+01  1.91283473e+01  1.90612188e+01 1 
C  2.50000000e+01  1.82199994e+01  2.02909748e+01 1 
C  2.89851843e+01  1.95148643e+01  2.02909748e+01 1 
C  3.14481637e+01  2.29048646e+01  2.02909748e+01 1 
C  3.14481637e+01  2.70951354e+01  2.02909748e+01 1 
C  2.89851843e+01  3.04851357e+01  2.02909748e+01 1 
C  2.50000000e+01  3.17800006e+01  2.02909748e+01 1 
C  2.10148157e+01  3.04851357e+01  2.02909748e+01 1 
C  1.85518363e+01  2.70951354e+01  2.02909748e+01 1 
C  1.85518363e+01  2.29048646e+01  2.02909748e+01 1 
C  2.10148157e+01  1.95148643e+01  2.02909748e+01 1 
C  2.77576747e+01  1.88061613e+01  2.02909748e+01 1 
C  3.08716527e+01  2.16099997e+01  2.02909748e+01 1 
C  3.17428590e+01  2.57087030e+01  2.02909748e+01 1 
C  3.00385223e+01  2.95367059e+01  2.02909748e+01 1 
C  2.64096414e+01  3.16318413e+01  2.02909748e+01 1 
C  2.22423253e+01  3.11938387e+01  2.02909748e+01 1 
C  1.91283473e+01  2.83900003e+01  2.02909748e+01 1 
C  1.82571410e+01  2.42912970e+01  2.02909748e+01 1 
C  1.99614777e+01  2.04632941e+01  2.02909748e+01 1 
C  2.35903586e+01  1.83681587e+01  2.02909748e+01 1 
C  2.70951354e+01  1.85518363e+01  2.15207309e+01 1 
C  3.04851357e+01  2.10148157e+01  2.15207309e+01 1 
C  3.17800006e+01  2.50000000e+01  2.15207309e+01 1 
C  3.04851357e+01  2.89851843e+01  2.15207309e+01 1 
C  2.70951354e+01  3.14481637e+01  2.15207309e+01 1 
C  2.29048646e+01  3.14481637e+01  2.15207309e+01 1 
C  1.95148643e+01  2.89851843e+01  2.15207309e+01 1 
C  1.82199994e+01  2.50000000e+01  2.15207309e+01 1 
C  1.95148643e+01  2.10148157e+01  2.15207309e+01 1 
C  2.29048646e+01  1.85518363e+01  2.15207309e+01 1 
C  2.57087030e+01  1.82571410e+01  2.15207309e+01 1 
C  2.95367059e+01  1.99614777e+01  2.15207309e+01 1 
C  3.16318413e+01  2.35903586e+01  2.15207309e+01 1 
C  3.11938387e+01  2.77576747e+01  2.15207309e+01 1 
C  2.83900003e+01  3.08716527e+01  2.15207309e+01 1 
C  2.42912970e+01  3.17428590e+01  2.15207309e+01 1 
C  2.04632941e+01  3.00385223e+01  2.15207309e+01 1 
C  1.83681587e+01  2.64096414e+01  2.15207309e+01 1 
C  1.88061613e+01  2.22423253e+01  2.15207309e+01 1 
C  2.16099997e+01  1.91283473e+01  2.15207309e+01 1 
C  2.50000000e+01  1.82199994e+01  2.27504869e+01 1 
C  2.89851843e+01  1.95148643e+01  2.27504869e+01 1 
C  3.14481637e+01  2.29048646e+01  2.27504869e+01 1 
C  3.14481637e+01  2.70951354e+01  2.27504869e+01 1 
C  2.89851843e+01  3.04851357e+01  2.27504869e+01 1 
C  2.50000000e+01  3.17800006e+01  2.27504869e+01 1 
C  2.10148157e+01  3.04851357e+01  2.27504869e+01 1 
C  1.85518363e+01  2.70951354e+01  2.27504869e+01 1 
C  1.85518363e+01  2.29048646e+01  2.27504869e+01 1 
C  2.10148157e+01  1.95148643e+01  2.27504869e+01 1 
C  2.77576747e+01  1.88061613e+01  2.27504869e+01 1 
C  3.08716527e+01  2.16099997e+01  2.27504869e+01 1 
C  3.17428590e+01  2.57087030e+01  2.27504869e+01 1 
C  3.00385223e+01  2.95367059e+01  2.27504869e+01 1 
C  2.64096414e+01  3.16318413e+01  2.27504869e+01 1 
C  2.22423253e+01  3.11938387e+01  2.27504869e+01 1 
C  1.91283473e+01  2.83900003e+01  2.27504869e+01 1 
C  1.82571410e+01  2.42912970e+01  2.27504869e+01 1 
C  1.99614777e+01  2.04632941e+01  2.27504869e+01 1 
C  2.35903586e+01  1.83681587e+01  2.27504869e+01 1 
C  2.70951354e+01  1.85518363e+01  2.39802430e+01 1 
C  3.04851357e+01  2.10148157e+01  2.39802430e+01 1 
C  3.17800006e+01  2.50000000e+01  2.39802430e+01 1 
C  3.04851357e+01  2.89851843e+01  2.39802430e+01 1 
C  2.70951354e+01  3.14481637e+01  2.39802430e+01 1 
C  2.29048646e+01  3.14481637e+01  2.39802430e+01 1 
C  1.95148643e+01  2.89851843e+01  2.39802430e+01 1 
C  1.82199994e+01  2.50000000e+01  2.39802430e+01 1 
C  1.95148643e+01  2.10148157e+01  2.39802430e+01 1 
C  2.29048646e+01  1.85518363e+01  2.39802430e+01 1 
C  2.57087030e+01  1.82571410e+01  2.39802430e+01 1 
C  2.95367059e+01  1.99614777e+01  2.39802430e+01 1 
C  3.16318413e+01  2.35903586e+01  2.39802430e+01 1 
C  3.11938387e+01  2.77576747e+01  2.39802430e+01 1 
C  2.83900003e+01  3.08716527e+01  2.39802430e+01 1 
C  2.42912970e+01  3.17428590e+01  2.39802430e+01 1 
C  2.04632941e+01  3.00385223e+01  2.39802430e+01 1 
C  1.83681587e+01  2.64096414e+01  2.39802430e+01 1 
C  1.88061613e+01  2.22423253e+01  2.39802430e+01 1 
C  2.16099997e+01  1.91283473e+01  2.39802430e+01 1 
C  2.50000000e+01  1.82199994e+01  2.52099990e+01 1 
C  2.89851843e+01  1.95148643e+01  2.52099990e+01 1 
C  3.14481637e+01  2.29048646e+01  2.52099990e+01 1 
C  3.14481637e+01  2.70951354e+01  2.52099990e+01 1 
C  2.89851843e+01  3.04851357e+01  2.52099990e+01 1 
C  2.50000000e+01  3.17800006e+01  2.52099990e+01 1 
C  2.10148157e+01  3.04851357e+01  2.52099990e+01 1 
C  1.85518363e+01  2.70951354e+01  2.52099990e+01 1 
C  1.85518363e+01  2.29048646e+01  2.52099990e+01 1 
C  2.10148157e+01  1.95148643e+01  2.52099990e+01 1 
C  2.77576747e+01  1.88061613e+01  2.52099990e+01 1 
C  3.08716527e+01  2.16099997e+01  2.52099990e+01 1 
C  3.17428590e+01  2.57087030e+01  2.52099990e+01 1 
C  3.00385223e+01  2.95367059e+01  2.52099990e+01 1 
C  2.64096414e+01  3.16318413e+01  2.52099990e+01 1 
C  2.22423253e+01  3.11938387e+01  2.52099990e+01 1 
C  1.91283473e+01  2.83900003e+01  2.52099990e+01 1 
C  1.82571410e+01  2.42912970e+01  2.52099990e+01 1 
C  1.99614777e+01  2.04632941e+01  2.52099990e+01 1 
C  2.35903586e+01  1.83681587e+01  2.52099990e+01 1 
C  2.70951354e+01  1.85518363e+01  2.64397551e+01 1 
C  3.04851357e+01  2.10148157e+01  2.64397551e+01 1 
C  3.17800006e+01  2.50000000e+01  2.64397551e+01 1 
C  3.04851357e+01  2.89851843e+01  2.64397551e+01 1 
C  2.70951354e+01  3.14481637e+01  2.64397551e+01 1 
C  2.29048646e+01  3.14481637e+01  2.64397551e+01 1 
C  1.95148643e+01  2.89851843e+01  2.64397551e+01 1 
C  1.82199994e+01  2.50000000e+01  2.64397551e+01 1 
C  1.95148643e+01  2.10148157e+01  2.64397551e+01 1 
C  2.29048646e+01  1.85518363e+01  2.64397551e+01 1 
C  2.57087030e+01  1.82571410e+01  2.64397551e+01 1 
C  2.95367059e+01  1.99614777e+01  2.64397551e+01 1 
C  3.16318413e+01  2.35903586e+01  2.64397551e+01 1 
C  3.11938387e+01  2.77576747e+01  2.64397551e+01 1 
C  2.83900003e+01  3.08716527e+01  2.64397551e+01 1 
C  2.42912970e+01  3.17428590e+01  2.64397551e+01 1 
C  2.04632941e+01  3.00385223e+01  2.64397551e+01 1 
C  1.83681587e+01  2.64096414e+01  2.64397551e+01 1 
C  1.88061613e+01  2.22423253e+01  2.64397551e+01 1 
C  2.16099997e+01  1.91283473e+01  2.64397551e+01 1 
C  2.50000000e+01  1.82199994e+01  2.76695111e+01 1 
C  2.89851843e+01  1.95148643e+01  2.76695111e+01 1 
C  3.14481637e+01  2.29048646e+01  2.76695111e+01 1 
C  3.14481637e+01  2.70951354e+01  2.76695111e+01 1 
C  2.89851843e+01  3.04851357e+01  2.76695111e+01 1 
C  2.50000000e+01  3.17800006e+01  2.76695111e+01 1 
C  2.10148157e+01  3.04851357e+01  2.76695111e+01 1 
C  1.85518363e+01  2.70951354e+01  2.76695111e+01 1 
C  1.85518363e+01  2.29048646e+01  2.76695111e+01 1 
C  2.10148157e+01  1.95148643e+01  2.76695111e+01 1 
C  2.77576747e+01  1.88061613e+01  2.76695111e+01 1 
C  3.08716527e+01  2.16099997e+01  2.76695111e+01 1 
C  3.17428590e+01  2.57087030e+01  2.76695111e+01 1 
C  3.00385223e+01  2.95367059e+01  2.76695111e+01 1 
C  2.64096414e+01  3.16318413e+01  2.76695111e+01 1 
C  2.22423253e+01  3.11938387e+01  2.76695111e+01 1 
C  1.91283473e+01  2.83900003e+01  2.76695111e+01 1 
C  1.82571410e+01  2.42912970e+01  2.76695111e+01 1 
C  1.99614777e+01  2.04632941e+01  2.76695111e+01 1 
C  2.35903586e+01  1.83681587e+01  2.76695111e+01 1 
C  2.70951354e+01  1.85518363e+01  2.88992672e+01 1 
C  3.04851357e+01  2.10148157e+01  2.88992672e+01 1 
C  3.17800006e+01  2.50000000e+01  2.88992672e+01 1 
C  3.04851357e+01  2.89851843e+01  2.88992672e+01 1 
C  2.70951354e+01  3.14481637e+01  2.88992672e+01 1 
C  2.29048646e+01  3.14481637e+01  2.88992672e+01 1 
C  1.95148643e+01  2.89851843e+01  2.88992672e+01 1 
C  1.82199994e+01  2.50000000e+01  2.88992672e+01 1 
C  1.95148643e+01  2.10148157e+01  2.88992672e+01 1 
C  2.29048646e+01  1.85518363e+01  2.88992672e+01 1 
C  2.57087030e+01  1.82571410e+01  2.88992672e+01 1 
C  2.95367059e+01  1.99614777e+01  2.88992672e+01 1 
C  3.16318413e+01  2.35903586e+01  2.88992672e+01 1 
C  3.11938387e+01  2.77576747e+01  2.88992672e+01 1 
C  2.83900003e+01  3.08716527e+01  2.88992672e+01 1 
C  2.42912970e+01  3.17428590e+01  2.88992672e+01 1 
C  2.04632941e+01  3.00385223e+01  2.88992672e+01 1 
C  1.83681587e+01  2.64096414e+01  2.88992672e+01 1 
C  1.88061613e+01  2.22423253e+01  2.88992672e+01 1 
C  2.16099997e+01  1.91283473e+01  2.88992672e+01 1 
C  2.50000000e+01  1.82199994e+01  3.01290232e+01 1 
C  2.89851843e+01  1.95148643e+01  3.01290232e+01 1 
C  3.14481637e+01  2.29048646e+01  3.01290232e+01 1 
C  3.14481637e+01  2.70951354e+01  3.01290232e+01 1 
C  2.89851843e+01  3.04851357e+01  3.01290232e+01 1 
C  2.50000000e+01  3.17800006e+01  3.01290232e+01 1 
C  2.10148157e+01  3.04851357e+01  3.01290232e+01 1 
C  1.85518363e+01  2.70951354e+01  3.01290232e+01 1 
C  1.85518363e+01  2.29048646e+01  3.01290232e+01 1 
C  2.10148157e+01  1.95148643e+01  3.01290232e+01 1 
C  2.77576747e+01  1.88061613e+01  3.01290232e+01 1 
C  3.08716527e+01  2.16099997e+01  3.01290232e+01 1 
C  3.17428590e+01  2.57087030e+01  3.01290232e+01 1 
C  3.00385223e+01  2.95367059e+01  3.01290232e+01 1 
C  2.64096414e+01  3.16318413e+01  3.01290232e+01 1 
C  2.22423253e+01  3.11938387e+01  3.01290232e+01 1 
C  1.91283473e+01  2.83900003e+01  3.01290232e+01 1 
C  1.82571410e+01  2.42912970e+01  3.01290232e+01 1 
C  1.99614777e+01  2.04632941e+01  3.01290232e+01 1 
C  2.35903586e+01  1.83681587e+01  3.01290232e+01 1 
C  2.70951354e+01  1.85518363e+01  3.13587793e+01 1 
C  3.04851357e+01  2.10148157e+01  3.13587793e+01 1 
C  3.17800006e+01  2.50000000e+01  3.13587793e+01 1 
C  3.04851357e+01  2.89851843e+01  3.13587793e+01 1 
C  2.70951354e+01  3.14481637e+01  3.13587793e+01 1 
C  2.29048646e+01  3.14481637e+01  3.13587793e+01 1 
C  1.95148643e+01  2.89851843e+01  3.13587793e+01 1 
C  1.82199994e+01  2.50000000e+01  3.13587793e+01 1 
C  1.95148643e+01  2.10148157e+01  3.13587793e+01 1 
C  2.29048646e+01  1.85518363e+01  3.13587793e+01 1 
C  2.57087030e+01  1.82571410e+01  3.13587793e+01 1 
C  2.95367059e+01  1.99614777e+01  3.13587793e+01 1 
C  3.16318413e+01  2.35903586e+01  3.13587793e+01 1 
C  3.11938387e+01  2.77576747e+01  3.13587793e+01 1 
C  2.83900003e+01  3.08716527e+01  3.13587793e+01 1 
C  2.42912970e+01  3.17428590e+01  3.13587793e+01 1 
C  2.04632941e+01  3.00385223e+01  3.13587793e+01 1 
C  1.83681587e+01  2.64096414e+01  3.13587793e+01 1 
C  1.88061613e+01  2.22423253e+01  3.13587793e+01 1 
C  2.16099997e+01  1.91283473e+01  3.13587793e+01 1 
C  2.50000000e+01  1.82199994e+01  3.25885353e+01 1 
C  2.89851843e+01  1.95148643e+01  3.25885353e+01 1 
C  3.14481637e+01  2.29048646e+01  3.25885353e+01 1 
C  3.14481637e+01  2.70951354e+01  3.25885353e+01 1 
C  2.89851843e+01  3.04851357e+01  3.25885353e+01 1 
C  2.50000000e+01  3.17800006e+01  3.25885353e+01 1 
C  2.10148157e+01  3.04851357e+01  3.25885353e+01 1 
C  1.85518363e+01  2.70951354e+01  3.25885353e+01 1 
C  1.85518363e+01  2.29048646e+01  3.25885353e+01 1 
C  2.10148157e+01  1.95148643e+01  3.25885353e+01 1 
C  2.77576747e+01  1.88061613e+01  3.25885353e+01 1 
C  3.08716527e+01  2.16099997e+01  3.25885353e+01 1 
C  3.17428590e+01  2.57087030e+01  3.25885353e+01 1 
C  3.00385223e+01  2.95367059e+01  3.25885353e+01 1 
C  2.64096414e+01  3.16318413e+01  3.25885353e+01 1 
C  2.22423253e+01  3.11938387e+01  3.25885353e+01 1 
C  1.91283473e+01  2.83900003e+01  3.25885353e+01 1 
C  1.82571410e+01  2.42912970e+01  3.25885353e+01 1 
C  1.99614777e+01  2.04632941e+01  3.25885353e+01 1 
C  2.35903586e+01  1.83681587e+01  3.25885353e+01 1 
C  2.70951354e+01  1.85518363e+01  3.38182914e+01 1 
C  3.04851357e+01  2.10148157e+01  3.38182914e+01 1 
C  3.17800006e+01  2.50000000e+01  3.38182914e+01 1 
C  3.04851357e+01  2.89851843e+01  3.38182914e+01 1 
C  2.70951354e+01  3.14481637e+01  3.38182914e+01 1 
C  2.29048646e+01  3.14481637e+01  3.38182914e+01 1 
C  1.95148643e+01  2.89851843e+01  3.38182914e+01 1 
C  1.82199994e+01  2.50000000e+01  3.38182914e+01 1 
C  1.95148643e+01  2.10148157e+01  3.38182914e+01 1 
C  2.29048646e+01  1.85518363e+01  3.38182914e+01 1 
C  2.57087030e+01  1.82571410e+01  3.38182914e+01 1 
C  2.95367059e+01  1.99614777e+01  3.38182914e+01 1 
C  3.16318413e+01  2.35903586e+01  3.38182914e+01 1 
C  3.11938387e+01  2.77576747e+01  3.38182914e+01 1 
C  2.83900003e+01  3.08716527e+01  3.38182914e+01 1 
C  2.42912970e+01  3.17428590e+01  3.38182914e+01 1 
C  2.04632941e+01  3.00385223e+01  3.38182914e+01 1 
C  1.83681587e+01  2.64096414e+01  3.38182914e+01 1 
C  1.88061613e+01  2.22423253e+01  3.38182914e+01 1 
C  2.16099997e+01  1.91283473e+01  3.38182914e+01 1 
C  2.50000000e+01  1.82199994e+01  3.50480474e+01 1 
C  2.89851843e+01  1.95148643e+01  3.50480474e+01 1 
C  3.14481637e+01  2.29048646e+01  3.50480474e+01 1 
C  3.14481637e+01  2.70951354e+01  3.50480474e+01 1 
C  2.89851843e+01  3.04851357e+01  3.50480474e+01 1 
C  2.50000000e+01  3.17800006e+01  3.50480474e+01 1 
C  2.10148157e+01  3.04851357e+01  3.50480474e+01 1 
C  1.85518363e+01  2.70951354e+01  3.50480474e+01 1 
C  1.85518363e+01  2.29048646e+01  3.50480474e+01 1 
C  2.10148157e+01  1.95148643e+01  3.50480474e+01 1 
C  2.77576747e+01  1.88061613e+01  3.50480474e+01 1 
C  3.08716527e+01  2.16099997e+01  3.50480474e+01 1 
C  3.17428590e+01  2.57087030e+01  3.50480474e+01 1 
C  3.00385223e+01  2.95367059e+01  3.50480474e+01 1 
C  2.64096414e+01  3.16318413e+01  3.50480474e+01 1 
C  2.22423253e+01  3.11938387e+01  3.50480474e+01 1 
C  1.91283473e+01  2.83900003e+01  3.50480474e+01 1 
C  1.82571410e+01  2.42912970e+01  3.50480474e+01 1 
C  1.99614777e+01  2.04632941e+01  3.50480474e+01 1 
C  2.35903586e+01  1.83681587e+01  3.50480474e+01 1 
C  2.70951354e+01  1.85518363e+01  3.62778035e+01 1 
C  3.04851357e+01  2.10148157e+01  3.62778035e+01 1 
C  3.17800006e+01  2.50000000e+01  3.62778035e+01 1 
C  3.04851357e+01  2.89851843e+01  3.62778035e+01 1 
C  2.70951354e+01  3.14481637e+01  3.62778035e+01 1 
C  2.29048646e+01  3.14481637e+01  3.62778035e+01 1 
C  1.95148643e+01  2.89851843e+01  3.62778035e+01 1 
C  1.82199994e+01  2.50000000e+01  3.62778035e+01 1 
C  1.95148643e+01  2.10148157e+01  3.62778035e+01 1 
C  2.29048646e+01  1.85518363e+01  3.62778035e+01 1 
C  2.57087030e+01  1.82571410e+01  3.62778035e+01 1 
C  2.95367059e+01  1.99614777e+01  3.62778035e+01 1 
C  3.16318413e+01  2.35903586e+01  3.62778035e+01 1 
C  3.11938387e+01  2.77576747e+01  3.62778035e+01 1 
C  2.83900003e+01  3.08716527e+01  3.62778035e+01 1 
C  2.42912970e+01  3.17428590e+01  3.62778035e+01 1 
C  2.04632941e+01  3.00385223e+01  3.62778035e+01 1 
C  1.83681587e+01  2.64096414e+01  3.62778035e+01 1 
C  1.88061613e+01  2.22423253e+01  3.62778035e+01 1 
C  2.16099997e+01  1.91283473e+01  3.62778035e+01 1 
C  2.50000000e+01  1.82199994e+01  3.75075595e+01 1 
C  2.89851843e+01  1.95148643e+01  3.75075595e+01 1 
C  3.14481637e+01  2.29048646e+01  3.75075595e+01 1 
C  3.14481637e+01  2.70951354e+01  3.75075595e+01 1 
C  2.89851843e+01  3.04851357e+01  3.75075595e+01 1 
C  2.50000000e+01  3.17800006e+01  3.75075595e+01 1 
C  2.10148157e+01  3.04851357e+01  3.75075595e+01 1 
C  1.85518363e+01  2.70951354e+01  3.75075595e+01 1 
C  1.85518363e+01  2.29048646e+01  3.75075595e+01 1 
C  2.10148157e+01  1.95148643e+01  3.75075595e+01 1 
C  2.77576747e+01  1.88061613e+01  3.75075595e+01 1 
C  3.08716527e+01  2.16099997e+01  3.75075595e+01 1 
C  3.17428590e+01  2.57087030e+01  3.75075595e+01 1 
C  3.00385223e+01  2.95367059e+01  3.75075595e+01 1 
C  2.64096414e+01  3.16318413e+01  3.75075595e+01 1 
C  2.22423253e+01  3.11938387e+01  3.75075595e+01 1 
C  1.91283473e+01  2.83900003e+01  3.75075595e+01 1 
C  1.82571410e+01  2.42912970e+01  3.75075595e+01 1 
C  1.99614777e+01  2.04632941e+01  3.75075595e+01 1 
C  2.35903586e+01  1.83681587e+01  3.75075595e+01 1 
C  2.70951354e+01  1.85518363e+01  3.87373156e+01 1 
C  3.04851357e+01  2.10148157e+01  3.87373156e+01 1 
C  3.17800006e+01  2.50000000e+01  3.87373156e+01 1 
C  3.04851357e+01  2.89851843e+01  3.87373156e+01 1 
C  2.70951354e+01  3.14481637e+01  3.87373156e+01 1 
C  2.29048646e+01  3.14481637e+01  3.87373156e+01 1 
C  1.95148643e+01  2.89851843e+01  3.87373156e+01 1 
C  1.82199994e+01  2.50000000e+01  3.87373156e+01 1 
C  1.95148643e+01  2.10148157e+01  3.87373156e+01 1 
C  2.29048646e+01  1.85518363e+01  3.87373156e+01 1 
C  2.57087030e+01  1.82571410e+01  3.87373156e+01 1 
C  2.95367059e+01  1.99614777e+01  3.87373156e+01 1 
C  3.16318413e+01  2.35903586e+01  3.87373156e+01 1 
C  3.11938387e+01  2.77576747e+01  3.87373156e+01 1 
C  2.83900003e+01  3.08716527e+01  3.87373156e+01 1 
C  2.42912970e+01  3.17428590e+01  3.87373156e+01 1 
C  2.04632941e+01  3.00385223e+01  3.87373156e+01 1 
C  1.83681587e+01  2.64096414e+01  3.87373156e+01 1 
C  1.88061613e+01  2.22423253e+01  3.87373156e+01 1 
C  2.16099997e+01  1.91283473e+01  3.87373156e+01 1 
