	60	
	0	20	0	20	0	20	
	C	12.23048	10.59992	12.417568	
	C	13.13378	10.1687	11.3740369	
	C	11.33738	9.68418	12.9955138	
	C	13.11732	8.8344	10.9388104	
	C	13.21612	8.53292	9.5280922	
	C	13.24952	11.24164	10.4116313	
	C	13.34554	10.94898	9.0422158	
	C	13.32862	9.5744	8.5938838	
	C	9.54522	11.3807	12.9648629	
	C	10.46538	12.32412	12.3697223	
	C	9.97468	10.08042	13.273163	
	C	11.78804	11.93946	12.100096	
	C	12.4178	12.33602	10.8603333	
	C	9.73264	13.11688	11.4076867	
	C	10.34394	13.50176	10.2042025	
	C	11.70654	13.1055	9.9264949	
	C	7.85236	9.15436	12.4195543	
	C	7.40994	10.49388	12.1020628	
	C	9.11562	8.9506	12.9965069	
	C	8.24374	11.59058	12.3707154	
	C	8.35958	12.66354	11.4082903	
	C	6.66686	10.43718	10.8629232	
	C	6.77936	11.47866	9.9287148	
	C	7.63832	12.6084	10.2054293	
	C	9.49138	6.99762	11.5352557	
	C	8.18996	7.20748	10.9410303	
	C	9.94736	7.8561	12.5478244	
	C	7.38258	8.26976	11.3766269	
	C	6.64994	9.0626	10.4145912	
	C	8.28894	6.90606	9.5302927	
	C	7.57768	7.67554	8.5964543	
	C	6.74596	8.76992	9.0451758	
	C	12.1972	7.89102	11.5340484	
	C	11.72748	7.0064	10.4911015	
	C	11.3205	8.30948	12.5472012	
	C	10.39466	6.56634	10.4917052	
	C	9.65152	6.50982	9.2525851	
	C	12.35714	7.40316	9.2513777	
	C	11.6359	7.34804	8.0484973	
	C	10.26284	6.89468	8.0491204	
	C	7.765	9.41164	7.0392196	
	C	8.20744	8.07212	7.356711	
	C	9.5301	7.68746	7.0870848	
	C	8.6581	10.32738	6.4612933	
	C	7.79828	12.12056	7.9227587	
	C	6.87816	11.17718	8.5179772	
	C	6.8617	9.84286	8.0827507	
	C	8.67498	11.70208	6.9095864	
	C	10.50408	13.01396	7.9215513	
	C	9.60082	13.44524	8.9651019	
	C	8.268	13.00516	8.9656861	
	C	10.0481	12.15546	6.9089632	
	C	12.14312	10.85722	7.0372528	
	C	12.6129	11.7418	8.0801607	
	C	11.80552	12.8041	8.5157573	
	C	10.87986	11.06096	6.4603001	
	C	10.45026	8.63086	6.4919441	
	C	11.75174	8.421	7.0860916	
	C	12.58554	9.51768	7.3547442	
	C	10.0208	9.93114	6.1836441	
